
SOLUTION 1 Mt. Edna Solciechiata
   units      mg/l
   pH         6.90
   pe         -0.2
   density    1.00
   temp       17.2
   Al         0.01
   C(4)       1180 as HCO3
   Ba         0.0296
   Ca         28.1
   Cd         0.00026
   Cl         238 charge
   Cu         0.0018
   Fe         0.150
   K          30.1
   Li         0.180
   Mg         214
   Mn         0.0277
   Na         250
   Pb         0.017
   S(6)       128
   Si         79.4 as SiO2
   Sr         0.673
   Zn         0.0604
END
